#---------------------------------------------------------------------------
#  CTI File converted from Solution Object
#---------------------------------------------------------------------------

units(length = "cm", time = "s", quantity = "mol", act_energy = "cal/mol")

ideal_gas(name = "gas",
     elements = "N H O C",
     species = """ N2 H2 H O2 O H2O OH H2O2 HO2 CO CO2 CH4 CH3 CH2O
                 C2H6 C2H5 C2H4 C2H2 NC3H7 C3H6 C2H3CHO C4H6 C6H5 C5H6 NC5H10 CYC6H10
                 NC7H14 RCRESOLO XYLENE RXYLENE RMCYC6 MCYC6 NC10H21
                 NC12H25 NC10H19 NC12H26 NC10H20 C4H8(L1) CH3O(L1) """,
#    species_qss = """ CH2(S) HCO C2H3 C2H CH2CHO HCCO C3H5-A C3H5O PC4H9
#                 C4H71-3 C4H71-4 C5H5 NC5H11 NC7H15 C7H7(L1) """,
     reactions = "all",
     kinetics = "custom",
     initial_state = state(temperature = 3.000000E+02, pressure= 1.013250E+05)   )

#---------------------------------------------------------------------------
#  Species data
#---------------------------------------------------------------------------

species(name = "N2",
    atoms = "N:2",
    thermo = (
       NASA(   [200.0, 1050.0], [3.731006820e+00, -1.831597300e-03,
                4.323246610e-06, -3.043781510e-09,
                7.460715620e-13, -1.062874260e+03,
                2.168211980e+00]  ),
       NASA(   [1050.0, 3500.0], [2.811660730e+00, 1.670673530e-03,
                -6.799974280e-07, 1.328813790e-10,
                -1.027674420e-14,
                -8.698115800e+02, 6.648380500e+00]  )
               ),
    transport = gas_transport(
                   geom = "linear",
                   diam = 3.621,
                   well_depth = 97.53,
                   polar = 1.76,
                   rot_relax = 4.0)
        )

species(name = "H2",
    atoms = "H:2",
    thermo = (
       NASA(   [200.0, 700.0], [2.642044380e+00, 5.495292750e-03,
                -1.271636340e-05, 1.287491740e-08,
                -4.700277500e-12,
                -9.432366130e+02,
                -5.122310940e-01]  ),
       NASA(   [700.0, 3500.0], [3.781998810e+00, -1.018732600e-03,
                1.242262330e-06, -4.190118990e-10,
                4.755437940e-14, -1.102830230e+03,
                -5.605259100e+00]  )
               ),
    transport = gas_transport(
                   geom = "linear",
                   diam = 2.9200000000000004,
                   well_depth = 38.0,
                   polar = 0.7900000000000001,
                   rot_relax = 280.0)
        )

species(name = "H",
    atoms = "H:1",
    thermo = (
       NASA(   [200.0, 860.0], [2.499505440e+00, 2.991640570e-06,
                -5.927597830e-09, 4.878101850e-12,
                -1.455393260e-15, 2.547378660e+04,
                -4.445740180e-01]  ),
       NASA(   [860.0, 3500.0], [2.500314930e+00, -7.734068720e-07,
                6.393453840e-10, -2.125518040e-13,
                2.444792070e-17, 2.547364740e+04,
                -4.483572280e-01]  )
               ),
    transport = gas_transport(
                   geom = "atom",
                   diam = 2.05,
                   well_depth = 145.0,
                   polar = 0.0,
                   rot_relax = 0.0)
        )

species(name = "O2",
    atoms = "O:2",
    thermo = (
       NASA(   [200.0, 700.0], [3.744039210e+00, -2.797401480e-03,
                9.801225600e-06, -1.032596430e-08,
                3.799312470e-12, -1.060698270e+03,
                3.821326450e+00]  ),
       NASA(   [700.0, 3500.0], [2.820124080e+00, 2.482113570e-03,
                -1.512020940e-06, 4.485562020e-10,
                -4.873056680e-14,
                -9.313501480e+02, 7.949145520e+00]  )
               ),
    transport = gas_transport(
                   geom = "linear",
                   diam = 3.458,
                   well_depth = 107.4,
                   polar = 1.6,
                   rot_relax = 3.8)
        )

species(name = "O",
    atoms = "O:1",
    thermo = (
       NASA(   [200.0, 720.0], [3.147992010e+00, -3.111740630e-03,
                6.181378930e-06, -5.638087940e-09,
                1.948660140e-12, 2.913091180e+04,
                2.134465500e+00]  ),
       NASA(   [720.0, 3500.0], [2.625491430e+00, -2.089596480e-04,
                1.339185490e-07, -3.858759080e-11,
                4.389187030e-15, 2.920615190e+04,
                4.483585180e+00]  )
               ),
    transport = gas_transport(
                   geom = "atom",
                   diam = 2.7500000000000004,
                   well_depth = 80.0,
                   polar = 0.0,
                   rot_relax = 0.0)
        )

species(name = "H2O",
    atoms = "H:2  O:1",
    thermo = (
       NASA(   [200.0, 1420.0], [4.060611720e+00, -8.658071890e-04,
                3.244095280e-06, -1.802430790e-09,
                3.324832930e-13, -3.028313140e+04,
                -2.961504810e-01]  ),
       NASA(   [1420.0, 3500.0], [2.667770750e+00, 3.057688490e-03,
                -9.004424110e-07, 1.433615520e-10,
                -1.008578170e-14,
                -2.988756450e+04, 6.911911310e+00]  )
               ),
    transport = gas_transport(
                   geom = "nonlinear",
                   diam = 2.6050000000000004,
                   well_depth = 572.4,
                   polar = 0.0,
                   rot_relax = 4.0,
                   dipole= 1.8440005262719967)
        )

species(name = "OH",
    atoms = "H:1  O:1",
    thermo = (
       NASA(   [200.0, 1700.0], [3.913546310e+00, -1.662759260e-03,
                2.309200290e-06, -1.023595080e-09,
                1.588296290e-13, 3.400050470e+03,
                2.054747190e-01]  ),
       NASA(   [1700.0, 3500.0], [2.498673690e+00, 1.666352790e-03,
                -6.282515160e-07, 1.283468060e-10,
                -1.057358940e-14, 3.881107160e+03,
                7.782188630e+00]  )
               ),
    transport = gas_transport(
                   geom = "linear",
                   diam = 2.7500000000000004,
                   well_depth = 80.0,
                   polar = 0.0,
                   rot_relax = 0.0)
        )

species(name = "H2O2",
    atoms = "H:2  O:2",
    thermo = (
       NASA(   [200.0, 1800.0], [3.347742240e+00, 7.050054370e-03,
                -3.845220060e-06, 1.167206610e-09,
                -1.476181050e-13,
                -1.757847850e+04, 7.178688510e+00]  ),
       NASA(   [1800.0, 3500.0], [4.768696390e+00, 3.892378480e-03,
                -1.213823490e-06, 1.926152850e-10,
                -1.225819900e-14,
                -1.809002200e+04,
                -5.118117770e-01]  )
               ),
    transport = gas_transport(
                   geom = "nonlinear",
                   diam = 3.458,
                   well_depth = 107.4,
                   polar = 0.0,
                   rot_relax = 3.8)
        )

species(name = "HO2",
    atoms = "H:1  O:2",
    thermo = (
       NASA(   [200.0, 700.0], [3.619942990e+00, 1.058057040e-03,
                5.066789420e-06, -6.338007620e-09,
                2.415972810e-12, 3.158982340e+02,
                6.444114820e+00]  ),
       NASA(   [700.0, 3500.0], [3.023918890e+00, 4.463909070e-03,
                -2.231464920e-06, 6.127108000e-10,
                -6.642662370e-14, 3.993416090e+02,
                9.106999730e+00]  )
               ),
    transport = gas_transport(
                   geom = "nonlinear",
                   diam = 3.458,
                   well_depth = 107.4,
                   polar = 0.0,
                   rot_relax = 1.0)
        )

species(name = "CO",
    atoms = "C:1  O:1",
    thermo = (
       NASA(   [200.0, 960.0], [3.757238910e+00, -2.144652410e-03,
                5.420790040e-06, -4.170259630e-09,
                1.119011270e-12, -1.435755300e+04,
                2.799767990e+00]  ),
       NASA(   [960.0, 3500.0], [2.792553810e+00, 1.874868860e-03,
                -8.597119250e-07, 1.912000700e-10,
                -1.678552860e-14,
                -1.417233350e+04, 7.414435600e+00]  )
               ),
    transport = gas_transport(
                   geom = "linear",
                   diam = 3.65,
                   well_depth = 98.1,
                   polar = 1.9500000000000002,
                   rot_relax = 1.8)
        )

species(name = "CO2",
    atoms = "C:1  O:2",
    thermo = (
       NASA(   [200.0, 1450.0], [2.316843470e+00, 9.227550360e-03,
                -7.756540930e-06, 3.282253600e-09,
                -5.487224820e-13,
                -4.836260670e+04, 1.007862340e+01]  ),
       NASA(   [1450.0, 3500.0], [4.708764680e+00, 2.629147040e-03,
                -9.306064620e-07, 1.438929200e-10,
                -7.625814130e-15,
                -4.905626390e+04,
                -2.349764520e+00]  )
               ),
    transport = gas_transport(
                   geom = "linear",
                   diam = 3.763,
                   well_depth = 244.0,
                   polar = 2.6500000000000004,
                   rot_relax = 2.1)
        )

species(name = "CH4",
    atoms = "C:1  H:4",
    thermo = (
       NASA(   [300.0, 700.0], [5.239673100e+00, -1.468351070e-02,
                5.297326760e-05, -5.416687880e-08,
                1.963185540e-11, -1.025263080e+04,
                -4.976496410e+00]  ),
       NASA(   [700.0, 3500.0], [5.053464560e-01, 1.236978440e-02,
                -4.998079110e-06, 1.043927610e-09,
                -8.628973680e-14,
                -9.589825030e+03, 1.617527730e+01]  )
               ),
    transport = gas_transport(
                   geom = "nonlinear",
                   diam = 3.7460000000000004,
                   well_depth = 141.4,
                   polar = 2.6,
                   rot_relax = 13.0)
        )

species(name = "CH3",
    atoms = "C:1  H:3",
    thermo = (
       NASA(   [300.0, 1060.0], [3.478293100e+00, 3.547647740e-03,
                1.474084390e-06, -1.943759540e-09,
                5.219212300e-13, 1.643995160e+04,
                2.408759560e+00]  ),
       NASA(   [1060.0, 3500.0], [2.788051040e+00, 6.152334770e-03,
                -2.211793490e-06, 3.744026480e-10,
                -2.481513480e-14, 1.658628290e+04,
                5.778998170e+00]  )
               ),
    transport = gas_transport(
                   geom = "linear",
                   diam = 3.8,
                   well_depth = 144.0,
                   polar = 0.0,
                   rot_relax = 0.0)
        )

species(name = "CH2(S)",
    atoms = "C:1  H:2",
    thermo = (
       NASA(   [300.0, 970.0], [4.181854340e+00, -2.211343120e-03,
                7.715275370e-06, -5.959503780e-09,
                1.583146280e-12, 5.036694070e+04,
                -7.030025820e-01]  ),
       NASA(   [970.0, 3500.0], [2.759342990e+00, 3.654683060e-03,
                -1.355899130e-06, 2.749804080e-10,
                -2.367954690e-14, 5.064290790e+04,
                6.116463810e+00]  )
               ),
    transport = gas_transport(
                   geom = "linear",
                   diam = 3.8,
                   well_depth = 144.0,
                   polar = 0.0,
                   rot_relax = 0.0)
        )

species(name = "CH2O",
    atoms = "C:1  H:2  O:1",
    thermo = (
       NASA(   [300.0, 700.0], [4.326212800e+00, -7.011517560e-03,
                3.151769390e-05, -3.364786170e-08,
                1.234540150e-11, -1.432701690e+04,
                2.620289680e+00]  ),
       NASA(   [700.0, 3500.0], [1.333356550e+00, 1.009051820e-02,
                -5.129525550e-06, 1.254252050e-09,
                -1.196391060e-13,
                -1.390801700e+04, 1.599161420e+01]  )
               ),
    transport = gas_transport(
                   geom = "nonlinear",
                   diam = 3.59,
                   well_depth = 498.0,
                   polar = 0.0,
                   rot_relax = 2.0)
        )

species(name = "HCO",
    atoms = "C:1  H:1  O:1",
    thermo = (
       NASA(   [200.0, 770.0], [4.034839790e+00, -2.158368640e-03,
                1.182338750e-05, -1.184594060e-08,
                4.005939550e-12, 3.836363920e+03,
                4.200087700e+00]  ),
       NASA(   [770.0, 3500.0], [2.600493180e+00, 5.292782580e-03,
                -2.691842110e-06, 7.213577990e-10,
                -7.435214090e-14, 4.057253300e+03,
                1.074509330e+01]  )
               ),
    transport = gas_transport(
                   geom = "nonlinear",
                   diam = 3.59,
                   well_depth = 498.0,
                   polar = 0.0,
                   rot_relax = 0.0)
        )

species(name = "C2H6",
    atoms = "C:2  H:6",
    thermo = (
       NASA(   [300.0, 1800.0], [-2.417787230e-01, 2.534757090e-02,
                -1.396451120e-05, 4.032574520e-09,
                -4.877543870e-13,
                -1.103911210e+04, 2.195726250e+01]  ),
       NASA(   [1800.0, 3500.0], [4.079591410e+00, 1.574452620e-02,
                -5.961973930e-06, 1.068671820e-09,
                -7.610123410e-14,
                -1.259480530e+04,
                -1.430894110e+00]  )
               ),
    transport = gas_transport(
                   geom = "nonlinear",
                   diam = 4.35,
                   well_depth = 247.49999999999997,
                   polar = 0.0,
                   rot_relax = 1.5)
        )

species(name = "C2H5",
    atoms = "C:2  H:5",
    thermo = (
       NASA(   [300.0, 1800.0], [6.754218020e-01, 2.115426170e-02,
                -1.208780170e-05, 3.649511800e-09,
                -4.597532370e-13, 1.334571860e+04,
                1.956284390e+01]  ),
       NASA(   [1800.0, 3500.0], [5.197913600e+00, 1.110428000e-02,
                -3.712816860e-06, 5.476655720e-10,
                -2.894126050e-14, 1.171762150e+04,
                -4.913825120e+00]  )
               ),
    transport = gas_transport(
                   geom = "nonlinear",
                   diam = 4.35,
                   well_depth = 247.49999999999997,
                   polar = 0.0,
                   rot_relax = 1.5)
        )

species(name = "C2H4",
    atoms = "C:2  H:4",
    thermo = (
       NASA(   [300.0, 1650.0], [-6.029324460e-02, 2.081339700e-02,
                -1.343078670e-05, 4.606383000e-09,
                -6.516874810e-13, 5.511516760e+03,
                2.106421720e+01]  ),
       NASA(   [1650.0, 3500.0], [4.604027180e+00, 9.505953500e-03,
                -3.151292620e-06, 4.530520750e-10,
                -2.239491600e-14, 3.972291020e+03,
                -3.774209040e+00]  )
               ),
    transport = gas_transport(
                   geom = "nonlinear",
                   diam = 3.496,
                   well_depth = 238.4,
                   polar = 0.0,
                   rot_relax = 1.5)
        )

species(name = "C2H3",
    atoms = "C:2  H:3",
    thermo = (
       NASA(   [300.0, 1450.0], [1.234212140e+00, 1.562222040e-02,
                -1.101715720e-05, 4.279893370e-09,
                -6.915415080e-13, 3.469676920e+04,
                1.686370480e+01]  ),
       NASA(   [1450.0, 3500.0], [4.187283760e+00, 7.475815890e-03,
                -2.589842270e-06, 4.052657960e-10,
                -2.350227220e-14, 3.384037850e+04,
                1.519587520e+00]  )
               ),
    transport = gas_transport(
                   geom = "nonlinear",
                   diam = 3.7210000000000005,
                   well_depth = 265.3,
                   polar = 0.0,
                   rot_relax = 1.0)
        )

species(name = "C2H2",
    atoms = "C:2  H:2",
    thermo = (
       NASA(   [300.0, 790.0], [7.705369820e-01, 2.371079940e-02,
                -3.666220350e-05, 2.959897530e-08,
                -9.275792290e-12, 2.643179750e+04,
                1.409076800e+01]  ),
       NASA(   [790.0, 3500.0], [4.372674510e+00, 5.472128360e-03,
                -2.031815470e-06, 3.750191360e-10,
                -2.770490850e-14, 2.586265980e+04,
                -2.438359080e+00]  )
               ),
    transport = gas_transport(
                   geom = "linear",
                   diam = 3.7210000000000005,
                   well_depth = 265.3,
                   polar = 0.0,
                   rot_relax = 2.5)
        )

species(name = "C2H",
    atoms = "C:2  H:1",
    thermo = (
       NASA(   [300.0, 1710.0], [4.608735990e+00, 1.427667850e-03,
                8.541586430e-07, -6.839033440e-10,
                1.219405890e-13, 6.688017720e+04,
                -1.058940680e+00]  ),
       NASA(   [1710.0, 3500.0], [3.417882570e+00, 4.213289890e-03,
                -1.589369460e-06, 2.687391910e-10,
                -1.733463580e-14, 6.728744910e+04,
                5.325123660e+00]  )
               ),
    transport = gas_transport(
                   geom = "linear",
                   diam = 3.7210000000000005,
                   well_depth = 265.3,
                   polar = 0.0,
                   rot_relax = 2.5)
        )

species(name = "CH2CHO",
    atoms = "C:2  H:3  O:1",
    thermo = (
       NASA(   [300.0, 1340.0], [7.378682830e-01, 2.504543570e-02,
                -2.201350260e-05, 1.000312940e-08,
                -1.808363570e-12, 3.763893390e+02,
                2.099628360e+01]  ),
       NASA(   [1340.0, 3500.0], [6.477037920e+00, 7.913586050e-03,
                -2.836058920e-06, 4.621126580e-10,
                -2.832313000e-14,
                -1.161708120e+03,
                -8.371572840e+00]  )
               ),
    transport = gas_transport(
                   geom = "nonlinear",
                   diam = 3.97,
                   well_depth = 436.0,
                   polar = 0.0,
                   rot_relax = 2.0)
        )

species(name = "HCCO",
    atoms = "C:2  H:1  O:1",
    thermo = (
       NASA(   [300.0, 1220.0], [3.330286610e+00, 1.203516290e-02,
                -1.142479490e-05, 5.707312670e-09,
                -1.136181050e-12, 2.000875430e+04,
                7.536503870e+00]  ),
       NASA(   [1220.0, 3500.0], [5.814205120e+00, 3.891167800e-03,
                -1.411686090e-06, 2.356685340e-10,
                -1.494249730e-14, 1.940267820e+04,
                -4.940896450e+00]  )
               ),
    transport = gas_transport(
                   geom = "nonlinear",
                   diam = 2.5,
                   well_depth = 150.0,
                   polar = 0.0,
                   rot_relax = 1.0)
        )

species(name = "NC3H7",
    atoms = "C:3  H:7",
    thermo = (
       NASA(   [300.0, 1590.0], [-1.370861770e-01, 3.508920070e-02,
                -2.304324530e-05, 8.149670140e-09,
                -1.194781010e-12, 1.084843520e+04,
                2.619699910e+01]  ),
       NASA(   [1590.0, 3500.0], [7.217249810e+00, 1.658772650e-02,
                -5.589024390e-06, 8.313385170e-10,
                -4.409993270e-14, 8.509756340e+03,
                -1.269387660e+01]  )
               ),
    transport = gas_transport(
                   geom = "nonlinear",
                   diam = 4.81,
                   well_depth = 303.4,
                   polar = 0.0,
                   rot_relax = 1.0)
        )

species(name = "C3H6",
    atoms = "C:3  H:6",
    thermo = (
       NASA(   [298.0, 1800.0], [-8.559871900e-02, 3.081122550e-02,
                -1.845740960e-05, 5.686864910e-09,
                -7.137476740e-13, 1.925678190e+03,
                2.409356880e+01]  ),
       NASA(   [1800.0, 3500.0], [6.317552010e+00, 1.658200170e-02,
                -6.599723020e-06, 1.295129160e-09,
                -1.037843750e-13,
                -3.794560710e+02,
                -1.056161880e+01]  )
               ),
    transport = gas_transport(
                   geom = "nonlinear",
                   diam = 4.14,
                   well_depth = 307.8,
                   polar = 0.0,
                   rot_relax = 1.0)
        )

species(name = "C3H5-A",
    atoms = "C:3  H:5",
    thermo = (
       NASA(   [298.0, 1600.0], [-3.578880960e-01, 3.270285360e-02,
                -2.400535810e-05, 9.073457290e-09,
                -1.370164870e-12, 2.002356950e+04,
                2.428456030e+01]  ),
       NASA(   [1600.0, 3500.0], [8.538777920e+00, 1.046118850e-02,
                -3.153797080e-06, 3.853068830e-10,
                -1.264136880e-14, 1.717663630e+04,
                -2.281817580e+01]  )
               ),
    transport = gas_transport(
                   geom = "nonlinear",
                   diam = 4.22,
                   well_depth = 316.0,
                   polar = 0.0,
                   rot_relax = 1.0)
        )

species(name = "C3H5O",
    atoms = "C:3  H:5  O:1",
    thermo = (
       NASA(   [300.0, 1610.0], [9.271968470e-01, 3.409089880e-02,
                -2.409598650e-05, 8.776229230e-09,
                -1.285452080e-12, 1.040888180e+04,
                2.237479920e+01]  ),
       NASA(   [1610.0, 3500.0], [9.110799780e+00, 1.375896600e-02,
                -5.153191990e-06, 9.324219830e-10,
                -6.746959110e-14, 7.773761700e+03,
                -2.100366580e+01]  )
               ),
    transport = gas_transport(
                   geom = "nonlinear",
                   diam = 4.820000000000001,
                   well_depth = 411.0,
                   polar = 0.0,
                   rot_relax = 1.0)
        )

species(name = "C2H3CHO",
    atoms = "C:3  H:4  O:1",
    thermo = (
       NASA(   [300.0, 1600.0], [8.189080440e-01, 3.222151310e-02,
                -2.338381480e-05, 8.718209880e-09,
                -1.305397470e-12,
                -9.681685870e+03, 2.369685220e+01]  ),
       NASA(   [1600.0, 3500.0], [9.225978380e+00, 1.120383720e-02,
                -3.679743660e-06, 5.081802540e-10,
                -2.258033780e-14,
                -1.237194840e+04,
                -2.081375600e+01]  )
               ),
    transport = gas_transport(
                   geom = "nonlinear",
                   diam = 4.958000000000001,
                   well_depth = 428.8,
                   polar = 0.0,
                   rot_relax = 1.0,
                   dipole= 2.900000827651188)
        )

species(name = "PC4H9",
    atoms = "C:4  H:9",
    thermo = (
       NASA(   [300.0, 950.0], [-2.761883680e-01, 4.941313800e-02,
                -3.937927400e-05, 2.082219010e-08,
                -5.130337790e-12, 6.858072730e+03,
                2.792432940e+01]  ),
       NASA(   [950.0, 3500.0], [3.947630050e+00, 3.162863940e-02,
                -1.129848670e-05, 1.116374510e-09,
                5.540315950e-14, 6.055547230e+03,
                7.763500680e+00]  )
               ),
    transport = gas_transport(
                   geom = "nonlinear",
                   diam = 5.24,
                   well_depth = 352.0,
                   polar = 0.0,
                   rot_relax = 1.0)
        )

species(name = "C4H71-3",
    atoms = "C:4  H:7",
    thermo = (
       NASA(   [300.0, 1420.0], [-1.125501240e+00, 4.648236520e-02,
                -3.451245910e-05, 1.373819200e-08,
                -2.287512730e-12, 1.463879780e+04,
                3.055717110e+01]  ),
       NASA(   [1420.0, 3500.0], [8.330177530e+00, 1.984665030e-02,
                -6.376140620e-06, 5.286527710e-10,
                3.811037310e-14, 1.195338500e+04,
                -1.837671180e+01]  )
               ),
    transport = gas_transport(
                   geom = "nonlinear",
                   diam = 4.720000000000001,
                   well_depth = 357.1,
                   polar = 0.0,
                   rot_relax = 1.0)
        )

species(name = "C4H71-4",
    atoms = "C:4  H:7",
    thermo = (
       NASA(   [300.0, 1530.0], [-3.293290510e-01, 4.237332210e-02,
                -2.851670510e-05, 1.019737630e-08,
                -1.546396000e-12, 2.258811310e+04,
                2.811561340e+01]  ),
       NASA(   [1530.0, 3500.0], [8.459169980e+00, 1.939685410e-02,
                -5.990756060e-06, 3.821479730e-10,
                5.739948060e-14, 1.989883240e+04,
                -1.802127930e+01]  )
               ),
    transport = gas_transport(
                   geom = "nonlinear",
                   diam = 4.720000000000001,
                   well_depth = 357.1,
                   polar = 0.0,
                   rot_relax = 1.0)
        )

species(name = "C4H6",
    atoms = "C:4  H:6",
    thermo = (
       NASA(   [200.0, 1800.0], [4.652251090e-01, 3.466618150e-02,
                -2.144373380e-05, 6.849648850e-09,
                -8.894569440e-13, 1.179195990e+04,
                2.312390870e+01]  ),
       NASA(   [1800.0, 3500.0], [9.308725210e+00, 1.501395910e-02,
                -5.066881770e-06, 7.841480960e-10,
                -4.702628390e-14, 8.608299870e+03,
                -2.473895860e+01]  )
               ),
    transport = gas_transport(
                   geom = "nonlinear",
                   diam = 4.720000000000001,
                   well_depth = 357.0,
                   polar = 0.0,
                   rot_relax = 1.0)
        )

species(name = "C6H5",
    atoms = "C:6  H:5",
    thermo = (
       NASA(   [300.0, 1390.0], [-6.762613850e+00, 6.951326690e-02,
                -6.222065530e-05, 2.780548540e-08,
                -4.878252630e-12, 3.998844570e+04,
                5.473752070e+01]  ),
       NASA(   [1390.0, 3500.0], [1.123312610e+01, 1.772696500e-02,
                -6.336156850e-06, 1.002368660e-09,
                -5.754817570e-14, 3.498563000e+04,
                -3.800758640e+01]  )
               ),
    transport = gas_transport(
                   geom = "nonlinear",
                   diam = 5.349000000000001,
                   well_depth = 412.3,
                   polar = 0.0,
                   rot_relax = 1.0)
        )

species(name = "C5H6",
    atoms = "C:5  H:6",
    thermo = (
       NASA(   [200.0, 1630.0], [-4.058666430e+00, 5.609924860e-02,
                -4.294951780e-05, 1.641971540e-08,
                -2.470823630e-12, 1.518747960e+04,
                4.107833190e+01]  ),
       NASA(   [1630.0, 3500.0], [1.357867640e+01, 1.281742570e-02,
                -3.119619360e-06, 1.293683920e-10,
                2.769585210e-14, 9.437705790e+03,
                -5.262890520e+01]  )
               ),
    transport = gas_transport(
                   geom = "linear",
                   diam = 5.200000000000001,
                   well_depth = 408.0,
                   polar = 0.0,
                   rot_relax = 1.0)
        )

species(name = "C5H5",
    atoms = "C:5  H:5",
    thermo = (
       NASA(   [300.0, 700.0], [-2.587374290e+00, 6.458176090e-02,
                -9.350638440e-05, 7.979433540e-08,
                -2.774008950e-11, 3.003556190e+04,
                3.094481250e+01]  ),
       NASA(   [700.0, 3500.0], [4.016525800e+00, 2.684518890e-02,
                -1.264230170e-05, 2.780923290e-09,
                -2.352994320e-13, 2.911101590e+04,
                1.440257710e+00]  )
               ),
    transport = gas_transport(
                   geom = "linear",
                   diam = 5.200000000000001,
                   well_depth = 408.0,
                   polar = 0.0,
                   rot_relax = 1.0)
        )

species(name = "NC5H11",
    atoms = "C:5  H:11",
    thermo = (
       NASA(   [300.0, 1800.0], [-3.575204490e+00, 6.089330390e-02,
                -3.600552760e-05, 1.074288120e-08,
                -1.300885700e-12, 2.051700500e+03,
                4.797973950e+01]  ),
       NASA(   [1800.0, 3500.0], [6.931937850e+00, 3.754409870e-02,
                -1.654785660e-05, 3.536336430e-09,
                -2.999767010e-13,
                -1.730870740e+03,
                -8.887106720e+00]  )
               ),
    transport = gas_transport(
                   geom = "nonlinear",
                   diam = 5.640000000000001,
                   well_depth = 392.0,
                   polar = 0.0,
                   rot_relax = 1.0)
        )

species(name = "NC5H10",
    atoms = "C:5  H:10",
    thermo = (
       NASA(   [300.0, 1800.0], [-6.895519640e-01, 5.466383480e-02,
                -3.339106110e-05, 1.037514530e-08,
                -1.306208820e-12,
                -5.970635040e+03, 3.038535410e+01]  ),
       NASA(   [1800.0, 3500.0], [1.119297360e+01, 2.825822230e-02,
                -1.138638410e-05, 2.225264910e-09,
                -1.742809930e-13,
                -1.024834430e+04,
                -3.392535330e+01]  )
               ),
    transport = gas_transport(
                   geom = "nonlinear",
                   diam = 5.200000000000001,
                   well_depth = 408.0,
                   polar = 0.0,
                   rot_relax = 1.0)
        )

species(name = "CYC6H10",
    atoms = "C:6  H:10",
    thermo = (
       NASA(   [300.0, 1800.0], [-6.015176550e+00, 7.469747370e-02,
                -4.974387910e-05, 1.642100930e-08,
                -2.152436110e-12,
                -1.675893990e+03, 5.211147070e+01]  ),
       NASA(   [1800.0, 3500.0], [1.516248580e+01, 2.763600170e-02,
                -1.052598580e-05, 1.895863610e-09,
                -1.350547730e-13,
                -9.299852450e+03,
                -6.250645590e+01]  )
               ),
    transport = gas_transport(
                   geom = "nonlinear",
                   diam = 5.23,
                   well_depth = 468.5,
                   polar = 10.300000000000002,
                   rot_relax = 1.0)
        )

species(name = "NC7H15",
    atoms = "C:7  H:15",
    thermo = (
       NASA(   [300.0, 1800.0], [-1.032136060e+00, 8.089837700e-02,
                -4.968734110e-05, 1.542427640e-08,
                -1.930657250e-12,
                -2.242544350e+03, 3.816807050e+01]  ),
       NASA(   [1800.0, 3500.0], [1.589382980e+01, 4.328511950e-02,
                -1.834295980e-05, 3.815246320e-09,
                -3.182919610e-13,
                -8.335892060e+03,
                -5.343878770e+01]  )
               ),
    transport = gas_transport(